grids/grid_urisi/cigre/cigre_eu_lv_com/validation/Comercial_Subnetwork_Curr_Elem.Txt

CIRCUIT ELEMENT CURRENTS

(Currents into element from indicated bus)

Power Delivery Elements

  Bus Phase    Magnitude, A     Angle      (Real)   +j  (Imag)

ELEMENT = "Vsource.SOURCE"
B1       1           7.1588 /_  151.9 =    -6.3167 +j    3.3687
B1       2           7.0344 /_   32.8 =     5.9121 +j    3.8118
B1       3           7.1918 /_  -86.8 =    0.40452 +j   -7.1804
------------
B1       0           7.1588 /_  -28.1 =     6.3167 +j   -3.3687
B1       0           7.0344 /_ -147.2 =    -5.9121 +j   -3.8118
B1       0           7.1918 /_   93.2 =   -0.40452 +j    7.1804

ELEMENT = "Transformer.T1"
B1       1           7.1588 /_  -28.1 =     6.3167 +j   -3.3687
B1       2           7.0344 /_ -147.2 =    -5.9121 +j   -3.8118
B1       3           7.1918 /_   93.2 =   -0.40452 +j    7.1804
B1       0                0 /_    0.0 =          0 +j         0
------------
B2       1           363.37 /_  122.5 =    -195.16 +j    306.51
B2       2           352.19 /_    2.4 =     351.88 +j    14.776
B2       3           353.66 /_ -116.9 =    -160.13 +j   -315.34
B2       4           6.8576 /_  -60.2 =     3.4094 +j     -5.95

ELEMENT = "Line.LINE_B2_B3"
B2       1           363.37 /_  -57.5 =     195.16 +j   -306.51
B2       2           352.19 /_ -177.6 =    -351.88 +j   -14.776
B2       3           353.66 /_   63.1 =     160.13 +j    315.34
B2       4           6.8576 /_  119.8 =    -3.4094 +j      5.95
------------
B3       1           363.37 /_  122.5 =    -195.16 +j    306.51
B3       2           352.19 /_    2.4 =     351.88 +j    14.776
B3       3           353.66 /_ -116.9 =    -160.13 +j   -315.34
B3       4           6.8576 /_  -60.2 =     3.4094 +j     -5.95

= = = = = = = = = = = = = = = = = = =  = = = = = = = = = = =  = =

Power Conversion Elements

  Bus Phase    Magnitude, A     Angle      (Real)   +j  (Imag)

ELEMENT = "Load.LOAD_B3"
B3       1           363.41 /_  -57.5 =     195.19 +j   -306.54
B3       2           352.16 /_ -177.6 =    -351.85 +j   -14.786
B3       3           353.65 /_   63.1 =     160.14 +j    315.32
B3       4           6.9372 /_  120.1 =    -3.4761 +j    6.0034

