grids/grid_urisi/cigre/cigre_eu_lv_com/validation/Comercial_Subnetwork_Curr_Seq.Txt

SYMMETRICAL COMPONENT CURRENTS BY CIRCUIT ELEMENT (first 3 phases)

Element                    Term      I1         I2         %I2/I1    I0         %I0/I1   %Normal %Emergency

"VSOURCE.SOURCE" .........   1  6.8294E-006   4.6278E-012     0.00  4.3723E-012     0.00      0.00     0.00
   -                         2  6.8294E-006   4.6278E-012     0.00  4.3723E-012     0.00      0.00     0.00
"TRANSFORMER.T1" .........   1  6.8294E-006   2.0319E-014     0.00  4.737E-015     0.00      0.00     0.00
   -                         2  1.9376E-005   3.0672E-013     0.00  1.8053E-012     0.00      0.00     0.00
"LINE.LINE_B2_B3" ........   1  2.2011E-005   3.0455E-013     0.00  4.7112E-013     0.00      0.00     0.00
   -                         2  2.6574E-006   3.8911E-013     0.00  4.3432E-013     0.00      0.00     0.00
"LOAD.LOAD_B3" ...........   1      433.01   2.8372E-007     0.00  4.5203E-008     0.00      0.00     0.00
