grids/grid_urisi/cigre/cigre_eu_lv_com/validation/Comercial_Subnetwork_Power_seq_MVA.txt

SYMMETRICAL COMPONENT POWERS BY CIRCUIT ELEMENT (first 3 phases)                                     Excess Power

Element                 Term    P1(MW)   Q1(Mvar)       P2         Q2      P0      Q0       P_Norm      Q_Norm     P_Emerg    Q_Emerg

"Vsource.SOURCE"         1       -0.2       -0.1        0.0        0.0     0.0     0.0
"Vsource.SOURCE"         2        0.0        0.0        0.0        0.0     0.0     0.0
"Transformer.T1"         1        0.2        0.1       -0.0       -0.0    -0.0    -0.0        0.0        0.0        0.0        0.0
"Transformer.T1"         2       -0.2       -0.1        0.0        0.0     0.0     0.0
"Line.LINE_01"           1        0.1        0.0       -0.0       -0.0    -0.0    -0.0        0.0        0.0        0.0        0.0
"Line.LINE_01"           2       -0.1       -0.0       -0.0       -0.0    -0.0     0.0
"Line.LINE_02"           1        0.1        0.0        0.0        0.0     0.0    -0.0        0.0        0.0        0.0        0.0
"Line.LINE_02"           2       -0.1       -0.0       -0.0       -0.0    -0.0     0.0
"Line.LINE_03"           1        0.0        0.0        0.0        0.0     0.0    -0.0        0.0        0.0        0.0        0.0
"Line.LINE_03"           2       -0.0       -0.0       -0.0       -0.0    -0.0     0.0
"Line.LINE_04"           1        0.0        0.0        0.0        0.0     0.0    -0.0        0.0        0.0        0.0        0.0
"Line.LINE_04"           2       -0.0       -0.0       -0.0       -0.0    -0.0     0.0
"Line.LINE_05"           1        0.0        0.0        0.0        0.0     0.0    -0.0        0.0        0.0        0.0        0.0
"Line.LINE_05"           2       -0.0       -0.0       -0.0       -0.0    -0.0     0.0
"Line.LINE_06"           1        0.0        0.0        0.0        0.0     0.0    -0.0        0.0        0.0        0.0        0.0
"Line.LINE_06"           2       -0.0       -0.0       -0.0       -0.0    -0.0     0.0
"Line.LINE_07"           1        0.0        0.0        0.0        0.0     0.0    -0.0        0.0        0.0        0.0        0.0
"Line.LINE_07"           2       -0.0       -0.0       -0.0       -0.0    -0.0     0.0
"Line.LINE_08"           1        0.0        0.0        0.0        0.0     0.0    -0.0        0.0        0.0        0.0        0.0
"Line.LINE_08"           2       -0.0       -0.0       -0.0       -0.0    -0.0     0.0
"Line.LINE_09"           1        0.1        0.0        0.0        0.0     0.0    -0.0        0.0        0.0        0.0        0.0
"Line.LINE_09"           2       -0.1       -0.0       -0.0       -0.0    -0.0     0.0
"Line.LINE_10"           1        0.0        0.0        0.0        0.0     0.0    -0.0        0.0        0.0        0.0        0.0
"Line.LINE_10"           2       -0.0       -0.0       -0.0       -0.0    -0.0     0.0
"Line.LINE_11"           1        0.0        0.0        0.0        0.0     0.0    -0.0        0.0        0.0        0.0        0.0
"Line.LINE_11"           2       -0.0       -0.0       -0.0       -0.0    -0.0     0.0
"Line.LINE_12"           1        0.0        0.0        0.0        0.0     0.0    -0.0        0.0        0.0        0.0        0.0
"Line.LINE_12"           2       -0.0       -0.0       -0.0       -0.0    -0.0     0.0
"Line.LINE_13"           1        0.0        0.0        0.0        0.0     0.0    -0.0        0.0        0.0        0.0        0.0
"Line.LINE_13"           2       -0.0       -0.0       -0.0       -0.0    -0.0     0.0
"Line.LINE_14"           1        0.0        0.0        0.0        0.0     0.0    -0.0        0.0        0.0        0.0        0.0
"Line.LINE_14"           2       -0.0       -0.0       -0.0       -0.0    -0.0     0.0
"Line.LINE_15"           1        0.0        0.0        0.0        0.0     0.0    -0.0        0.0        0.0        0.0        0.0
"Line.LINE_15"           2       -0.0       -0.0       -0.0       -0.0    -0.0     0.0
"Line.LINE_16"           1        0.0        0.0        0.0        0.0     0.0    -0.0        0.0        0.0        0.0        0.0
"Line.LINE_16"           2       -0.0       -0.0       -0.0       -0.0    -0.0     0.0
"Line.LINE_17"           1        0.0        0.0        0.0        0.0     0.0    -0.0        0.0        0.0        0.0        0.0
"Line.LINE_17"           2       -0.0       -0.0       -0.0       -0.0    -0.0     0.0
"Line.LINE_18"           1        0.0        0.0        0.0        0.0     0.0    -0.0        0.0        0.0        0.0        0.0
"Line.LINE_18"           2       -0.0       -0.0       -0.0       -0.0    -0.0     0.0
"Line.LINE_19"           1        0.0        0.0        0.0        0.0     0.0    -0.0        0.0        0.0        0.0        0.0
"Line.LINE_19"           2       -0.0       -0.0       -0.0       -0.0    -0.0     0.0
"Load.LOAD_C01"          1        0.1        0.0        0.0        0.0     0.0     0.0
"Load.LOAD_C12"          1        0.0        0.0        0.0        0.0     0.0    -0.0
"Load.LOAD_C13"          1        0.0        0.0        0.0        0.0     0.0    -0.0
"Load.LOAD_C14"          1        0.0        0.0        0.0        0.0     0.0    -0.0
"Load.LOAD_C17"          1        0.0        0.0        0.0        0.0     0.0    -0.0
"Load.LOAD_C18"          1        0.0        0.0        0.0        0.0     0.0    -0.0
"Load.LOAD_C19"          1        0.0        0.0        0.0        0.0     0.0    -0.0
"Load.LOAD_C20"          1        0.0        0.0        0.0        0.0     0.0    -0.0

Total Circuit Losses =    0.0 +j    0.0
