grids/grid_urisi/cigre/cigre_eu_lv_com/validation/Comercial_Subnetwork_Power_seq_kVA.txt

SYMMETRICAL COMPONENT POWERS BY CIRCUIT ELEMENT (first 3 phases)                                     Excess Power

Element                    Term    P1(kW)   Q1(kvar)       P2         Q2      P0      Q0       P_Norm      Q_Norm     P_Emerg    Q_Emerg

"Vsource.SOURCE"            1     -103.5       -2.4        0.0        0.0     0.0     0.0
"Vsource.SOURCE"            2        0.0        0.0        0.0        0.0     0.0     0.0
"Transformer.T1"            1      103.5        2.4       -0.0       -0.0    -0.0    -0.0        0.0        0.0        0.0        0.0
"Transformer.T1"            2     -103.3       -1.9        0.0        0.0     0.0     0.0
"Line.LINE_B2_B3"           1      103.3        1.9       -0.0       -0.0    -0.0    -0.0        0.0        0.0        0.0        0.0
"Line.LINE_B2_B3"           2     -100.0       -0.0        0.0        0.0     0.0     0.0
"Load.LOAD_B3"              1      100.0        0.0       -0.0       -0.0    -0.0    -0.0

Total Circuit Losses =    3.5 +j    2.4
